1
9
.tran 100u 7{return}{return}
3
1
GPIO_0
V
1
Net-(Q1-Pad2)
V
1
OUT0
V
