* A dual SSM6P69NU
* file name: SSM6P69NU_DUAL.lib
.subckt SSM6P69NU S1 G1 D2 S2 G2 D1 
.include SSM6P69NU_PSpice_20180719.lib
XU1A D1 G1 S1 PMOS_SSM6P69NU
XU1B D2 G2 S2 PMOS_SSM6P69NU
.ends
