* A dual SSM6P49NU
* file name: SSM6P49NU_DUAL.lib
.subckt SSM6P49NU S1 G1 D2 S2 G2 D1 
.include SSM6P49NU_PSpice_20140521.lib
XU1A D1 G1 S1 PMOS_SSM6P49NU
XU1B D2 G2 S2 PMOS_SSM6P49NU
.ends
